8
ethane.mol2.mol
C         -0.41250        0.00000        0.00000
C          0.41250        0.00000        0.00000
H         -0.94750        0.92660        0.00000
H         -0.94750       -0.92660        0.00000
H         -1.48250       -0.00000        0.00000
H          0.94750       -0.92660        0.00000
H          0.94750        0.92660        0.00000
H          1.48250        0.00000        0.00000
